MODEL 1
REMARK VINA RESULT:    -0.001      0.000      0.000
REMARK INTER + INTRA:          -0.820
REMARK INTER:                   0.000
REMARK INTRA:                  -0.820
REMARK UNBOUND:                -0.820
REMARK  Name = ZINC000021057951
REMARK                            x       y       z     vdW  Elec       q    Type
REMARK                         _______ _______ _______ _____ _____    ______ ____
ROOT
ATOM      1  C   LIG    1       43.132  43.656  49.904  0.00  0.00    +0.030 C 
ATOM      2  C   LIG    1       42.328  44.934  50.152  0.00  0.00    +0.280 C 
ENDROOT
BRANCH   2   3
ATOM      3  C   LIG    1       43.242  46.129  50.056  0.00  0.00    -0.080 A 
ATOM      4  C   LIG    1       44.368  46.203  50.854  0.00  0.00    +0.020 A 
ATOM      5  C   LIG    1       45.207  47.298  50.765  0.00  0.00    +0.040 A 
ATOM      6  C   LIG    1       44.919  48.321  49.880  0.00  0.00    +0.030 A 
ATOM      7  C   LIG    1       43.791  48.247  49.082  0.00  0.00    -0.030 A 
ATOM      8 CL   LIG    1       43.429  49.530  47.970  0.00  0.00    -0.060 Cl
ATOM      9  C   LIG    1       42.955  47.147  49.166  0.00  0.00    +0.040 A 
ENDBRANCH   2   3
BRANCH   2  10
ATOM     10  N   LIG    1       41.732  44.882  51.489  0.00  0.00    -0.740 N 
ATOM     11  H   LIG    1       41.980  44.176  52.105  0.00  0.00    +0.400 HD
BRANCH  10  12
ATOM     12  C   LIG    1       40.805  45.854  51.879  0.00  0.00    +0.210 A 
ATOM     13  C   LIG    1       41.055  46.646  52.992  0.00  0.00    -0.040 A 
ATOM     14  C   LIG    1       40.139  47.606  53.376  0.00  0.00    +0.030 A 
ATOM     15  C   LIG    1       38.971  47.778  52.652  0.00  0.00    +0.040 A 
ATOM     16  C   LIG    1       38.720  46.989  51.542  0.00  0.00    +0.030 A 
ATOM     17  F   LIG    1       38.076  48.717  53.030  0.00  0.00    -0.150 F 
ATOM     18  C   LIG    1       39.636  46.032  51.151  0.00  0.00    -0.040 A 
ENDBRANCH  10  12
ENDBRANCH   2  10
TORSDOF 3
ENDMDL
MODEL 2
REMARK VINA RESULT:    -0.001     14.320     16.368
REMARK INTER + INTRA:          -0.820
REMARK INTER:                   0.000
REMARK INTRA:                  -0.820
REMARK UNBOUND:                -0.820
REMARK  Name = ZINC000021057951
REMARK                            x       y       z     vdW  Elec       q    Type
REMARK                         _______ _______ _______ _____ _____    ______ ____
ROOT
ATOM      1  C   LIG    1       43.394  41.099  39.918  0.00  0.00    +0.030 C 
ATOM      2  C   LIG    1       44.006  40.041  38.998  0.00  0.00    +0.280 C 
ENDROOT
BRANCH   2   3
ATOM      3  C   LIG    1       45.463  39.860  39.339  0.00  0.00    -0.080 A 
ATOM      4  C   LIG    1       46.317  40.947  39.321  0.00  0.00    +0.020 A 
ATOM      5  C   LIG    1       47.653  40.782  39.634  0.00  0.00    +0.040 A 
ATOM      6  C   LIG    1       48.137  39.530  39.964  0.00  0.00    +0.030 A 
ATOM      7  C   LIG    1       47.283  38.441  39.981  0.00  0.00    -0.030 A 
ATOM      8 CL   LIG    1       47.889  36.868  40.396  0.00  0.00    -0.060 Cl
ATOM      9  C   LIG    1       45.944  38.608  39.674  0.00  0.00    +0.040 A 
ENDBRANCH   2   3
BRANCH   2  10
ATOM     10  N   LIG    1       43.881  40.475  37.605  0.00  0.00    -0.740 N 
ATOM     11  H   LIG    1       43.576  41.372  37.401  0.00  0.00    +0.400 HD
BRANCH  10  12
ATOM     12  C   LIG    1       44.205  39.596  36.566  0.00  0.00    +0.210 A 
ATOM     13  C   LIG    1       45.193  39.934  35.652  0.00  0.00    -0.040 A 
ATOM     14  C   LIG    1       45.513  39.065  34.627  0.00  0.00    +0.030 A 
ATOM     15  C   LIG    1       44.846  37.856  34.511  0.00  0.00    +0.040 A 
ATOM     16  C   LIG    1       43.861  37.517  35.423  0.00  0.00    +0.030 A 
ATOM     17  F   LIG    1       45.160  37.007  33.508  0.00  0.00    -0.150 F 
ATOM     18  C   LIG    1       43.542  38.381  36.452  0.00  0.00    -0.040 A 
ENDBRANCH  10  12
ENDBRANCH   2  10
TORSDOF 3
ENDMDL
MODEL 3
REMARK VINA RESULT:    -0.000     13.098     15.081
REMARK INTER + INTRA:          -0.820
REMARK INTER:                   0.000
REMARK INTRA:                  -0.820
REMARK UNBOUND:                -0.820
REMARK  Name = ZINC000021057951
REMARK                            x       y       z     vdW  Elec       q    Type
REMARK                         _______ _______ _______ _____ _____    ______ ____
ROOT
ATOM      1  C   LIG    1       50.510  39.711  39.527  0.00  0.00    +0.030 C 
ATOM      2  C   LIG    1       50.168  39.021  40.849  0.00  0.00    +0.280 C 
ENDROOT
BRANCH   2   3
ATOM      3  C   LIG    1       50.680  39.853  41.997  0.00  0.00    -0.080 A 
ATOM      4  C   LIG    1       52.019  40.194  42.059  0.00  0.00    +0.020 A 
ATOM      5  C   LIG    1       52.489  40.957  43.111  0.00  0.00    +0.040 A 
ATOM      6  C   LIG    1       51.623  41.378  44.102  0.00  0.00    +0.030 A 
ATOM      7  C   LIG    1       50.283  41.036  44.041  0.00  0.00    -0.030 A 
ATOM      8 CL   LIG    1       49.195  41.565  45.285  0.00  0.00    -0.060 Cl
ATOM      9  C   LIG    1       49.812  40.277  42.984  0.00  0.00    +0.040 A 
ENDBRANCH   2   3
BRANCH   2  10
ATOM     10  N   LIG    1       50.795  37.698  40.886  0.00  0.00    -0.740 N 
ATOM     11  H   LIG    1       51.429  37.442  40.198  0.00  0.00    +0.400 HD
BRANCH  10  12
ATOM     12  C   LIG    1       50.482  36.804  41.915  0.00  0.00    +0.210 A 
ATOM     13  C   LIG    1       51.484  36.322  42.746  0.00  0.00    -0.040 A 
ATOM     14  C   LIG    1       51.174  35.440  43.762  0.00  0.00    +0.030 A 
ATOM     15  C   LIG    1       49.863  35.034  43.951  0.00  0.00    +0.040 A 
ATOM     16  C   LIG    1       48.862  35.515  43.124  0.00  0.00    +0.030 A 
ATOM     17  F   LIG    1       49.561  34.171  44.946  0.00  0.00    -0.150 F 
ATOM     18  C   LIG    1       49.167  36.401  42.110  0.00  0.00    -0.040 A 
ENDBRANCH  10  12
ENDBRANCH   2  10
TORSDOF 3
ENDMDL
MODEL 4
REMARK VINA RESULT:    -0.000     12.410     13.816
REMARK INTER + INTRA:          -0.820
REMARK INTER:                   0.000
REMARK INTRA:                  -0.820
REMARK UNBOUND:                -0.820
REMARK  Name = ZINC000021057951
REMARK                            x       y       z     vdW  Elec       q    Type
REMARK                         _______ _______ _______ _____ _____    ______ ____
ROOT
ATOM      1  C   LIG    1       35.807  36.837  51.003  0.00  0.00    +0.030 C 
ATOM      2  C   LIG    1       34.529  36.929  51.839  0.00  0.00    +0.280 C 
ENDROOT
BRANCH   2   3
ATOM      3  C   LIG    1       33.335  36.644  50.965  0.00  0.00    -0.080 A 
ATOM      4  C   LIG    1       33.121  37.392  49.823  0.00  0.00    +0.020 A 
ATOM      5  C   LIG    1       32.026  37.131  49.020  0.00  0.00    +0.040 A 
ATOM      6  C   LIG    1       31.144  36.122  49.360  0.00  0.00    +0.030 A 
ATOM      7  C   LIG    1       31.358  35.373  50.504  0.00  0.00    -0.030 A 
ATOM      8 CL   LIG    1       30.252  34.105  50.931  0.00  0.00    -0.060 Cl
ATOM      9  C   LIG    1       32.457  35.631  51.303  0.00  0.00    +0.040 A 
ENDBRANCH   2   3
BRANCH   2  10
ATOM     10  N   LIG    1       34.411  38.276  52.402  0.00  0.00    -0.740 N 
ATOM     11  H   LIG    1       35.019  38.976  52.118  0.00  0.00    +0.400 HD
BRANCH  10  12
ATOM     12  C   LIG    1       33.419  38.554  53.349  0.00  0.00    +0.210 A 
ATOM     13  C   LIG    1       32.475  39.540  53.097  0.00  0.00    -0.040 A 
ATOM     14  C   LIG    1       31.496  39.814  54.032  0.00  0.00    +0.030 A 
ATOM     15  C   LIG    1       31.457  39.105  55.221  0.00  0.00    +0.040 A 
ATOM     16  C   LIG    1       32.398  38.122  55.474  0.00  0.00    +0.030 A 
ATOM     17  F   LIG    1       30.499  39.375  56.135  0.00  0.00    -0.150 F 
ATOM     18  C   LIG    1       33.375  37.841  54.540  0.00  0.00    -0.040 A 
ENDBRANCH  10  12
ENDBRANCH   2  10
TORSDOF 3
ENDMDL
MODEL 5
REMARK VINA RESULT:    -0.000     29.040     30.546
REMARK INTER + INTRA:          -0.820
REMARK INTER:                   0.000
REMARK INTRA:                  -0.820
REMARK UNBOUND:                -0.820
REMARK  Name = ZINC000021057951
REMARK                            x       y       z     vdW  Elec       q    Type
REMARK                         _______ _______ _______ _____ _____    ______ ____
ROOT
ATOM      1  C   LIG    1       38.167  34.456  25.458  0.00  0.00    +0.030 C 
ATOM      2  C   LIG    1       36.769  34.949  25.078  0.00  0.00    +0.280 C 
ENDROOT
BRANCH   2   3
ATOM      3  C   LIG    1       35.963  33.800  24.527  0.00  0.00    -0.080 A 
ATOM      4  C   LIG    1       36.439  33.077  23.449  0.00  0.00    +0.020 A 
ATOM      5  C   LIG    1       35.701  32.023  22.945  0.00  0.00    +0.040 A 
ATOM      6  C   LIG    1       34.486  31.692  23.515  0.00  0.00    +0.030 A 
ATOM      7  C   LIG    1       34.009  32.417  24.594  0.00  0.00    -0.030 A 
ATOM      8 CL   LIG    1       32.484  32.002  25.312  0.00  0.00    -0.060 Cl
ATOM      9  C   LIG    1       34.752  33.468  25.103  0.00  0.00    +0.040 A 
ENDBRANCH   2   3
BRANCH   2  10
ATOM     10  N   LIG    1       36.881  35.998  24.061  0.00  0.00    -0.740 N 
ATOM     11  H   LIG    1       37.739  36.184  23.648  0.00  0.00    +0.400 HD
BRANCH  10  12
ATOM     12  C   LIG    1       35.751  36.730  23.684  0.00  0.00    +0.210 A 
ATOM     13  C   LIG    1       35.332  36.730  22.360  0.00  0.00    -0.040 A 
ATOM     14  C   LIG    1       34.216  37.453  21.989  0.00  0.00    +0.030 A 
ATOM     15  C   LIG    1       33.515  38.180  22.937  0.00  0.00    +0.040 A 
ATOM     16  C   LIG    1       33.930  38.181  24.258  0.00  0.00    +0.030 A 
ATOM     17  F   LIG    1       32.423  38.887  22.572  0.00  0.00    -0.150 F 
ATOM     18  C   LIG    1       35.043  37.455  24.634  0.00  0.00    -0.040 A 
ENDBRANCH  10  12
ENDBRANCH   2  10
TORSDOF 3
ENDMDL
MODEL 6
REMARK VINA RESULT:    -0.000     22.874     25.385
REMARK INTER + INTRA:          -0.820
REMARK INTER:                   0.000
REMARK INTRA:                  -0.820
REMARK UNBOUND:                -0.820
REMARK  Name = ZINC000021057951
REMARK                            x       y       z     vdW  Elec       q    Type
REMARK                         _______ _______ _______ _____ _____    ______ ____
ROOT
ATOM      1  C   LIG    1       45.044  32.950  35.116  0.00  0.00    +0.030 C 
ATOM      2  C   LIG    1       45.046  31.973  33.938  0.00  0.00    +0.280 C 
ENDROOT
BRANCH   2   3
ATOM      3  C   LIG    1       45.190  30.564  34.454  0.00  0.00    -0.080 A 
ATOM      4  C   LIG    1       46.266  30.228  35.254  0.00  0.00    +0.020 A 
ATOM      5  C   LIG    1       46.398  28.937  35.728  0.00  0.00    +0.040 A 
ATOM      6  C   LIG    1       45.456  27.979  35.401  0.00  0.00    +0.030 A 
ATOM      7  C   LIG    1       44.379  28.315  34.599  0.00  0.00    -0.030 A 
ATOM      8 CL   LIG    1       43.195  27.114  34.190  0.00  0.00    -0.060 Cl
ATOM      9  C   LIG    1       44.244  29.610  34.131  0.00  0.00    +0.040 A 
ENDBRANCH   2   3
BRANCH   2  10
ATOM     10  N   LIG    1       46.167  32.284  33.048  0.00  0.00    -0.740 N 
ATOM     11  H   LIG    1       46.836  32.932  33.318  0.00  0.00    +0.400 HD
BRANCH  10  12
ATOM     12  C   LIG    1       46.274  31.645  31.809  0.00  0.00    +0.210 A 
ATOM     13  C   LIG    1       47.403  30.893  31.510  0.00  0.00    -0.040 A 
ATOM     14  C   LIG    1       47.508  30.262  30.286  0.00  0.00    +0.030 A 
ATOM     15  C   LIG    1       46.488  30.380  29.357  0.00  0.00    +0.040 A 
ATOM     16  C   LIG    1       45.362  31.128  29.653  0.00  0.00    +0.030 A 
ATOM     17  F   LIG    1       46.593  29.762  28.159  0.00  0.00    -0.150 F 
ATOM     18  C   LIG    1       45.250  31.756  30.878  0.00  0.00    -0.040 A 
ENDBRANCH  10  12
ENDBRANCH   2  10
TORSDOF 3
ENDMDL
MODEL 7
REMARK VINA RESULT:     0.000     14.969     16.454
REMARK INTER + INTRA:          -0.820
REMARK INTER:                   0.000
REMARK INTRA:                  -0.820
REMARK UNBOUND:                -0.820
REMARK  Name = ZINC000021057951
REMARK                            x       y       z     vdW  Elec       q    Type
REMARK                         _______ _______ _______ _____ _____    ______ ____
ROOT
ATOM      1  C   LIG    1       32.580  36.083  50.420  0.00  0.00    +0.030 C 
ATOM      2  C   LIG    1       31.410  36.220  51.397  0.00  0.00    +0.280 C 
ENDROOT
BRANCH   2   3
ATOM      3  C   LIG    1       30.119  35.923  50.680  0.00  0.00    -0.080 A 
ATOM      4  C   LIG    1       29.778  36.637  49.546  0.00  0.00    +0.020 A 
ATOM      5  C   LIG    1       28.593  36.364  48.888  0.00  0.00    +0.040 A 
ATOM      6  C   LIG    1       27.748  35.379  49.363  0.00  0.00    +0.030 A 
ATOM      7  C   LIG    1       28.089  34.664  50.499  0.00  0.00    -0.030 A 
ATOM      8 CL   LIG    1       27.029  33.426  51.096  0.00  0.00    -0.060 Cl
ATOM      9  C   LIG    1       29.278  34.933  51.154  0.00  0.00    +0.040 A 
ENDBRANCH   2   3
BRANCH   2  10
ATOM     10  N   LIG    1       31.373  37.586  51.924  0.00  0.00    -0.740 N 
ATOM     11  H   LIG    1       31.950  38.268  51.547  0.00  0.00    +0.400 HD
BRANCH  10  12
ATOM     12  C   LIG    1       30.503  37.908  52.971  0.00  0.00    +0.210 A 
ATOM     13  C   LIG    1       29.545  38.898  52.799  0.00  0.00    -0.040 A 
ATOM     14  C   LIG    1       28.686  39.215  53.834  0.00  0.00    +0.030 A 
ATOM     15  C   LIG    1       28.783  38.546  55.043  0.00  0.00    +0.040 A 
ATOM     16  C   LIG    1       29.737  37.558  55.216  0.00  0.00    +0.030 A 
ATOM     17  F   LIG    1       27.942  38.858  56.054  0.00  0.00    -0.150 F 
ATOM     18  C   LIG    1       30.594  37.234  54.182  0.00  0.00    -0.040 A 
ENDBRANCH  10  12
ENDBRANCH   2  10
TORSDOF 3
ENDMDL
MODEL 8
REMARK VINA RESULT:     0.000      9.351     11.491
REMARK INTER + INTRA:          -0.820
REMARK INTER:                   0.000
REMARK INTRA:                  -0.820
REMARK UNBOUND:                -0.820
REMARK  Name = ZINC000021057951
REMARK                            x       y       z     vdW  Elec       q    Type
REMARK                         _______ _______ _______ _____ _____    ______ ____
ROOT
ATOM      1  C   LIG    1       34.664  50.881  43.591  0.00  0.00    +0.030 C 
ATOM      2  C   LIG    1       34.004  49.833  44.490  0.00  0.00    +0.280 C 
ENDROOT
BRANCH   2   3
ATOM      3  C   LIG    1       32.573  50.226  44.752  0.00  0.00    -0.080 A 
ATOM      4  C   LIG    1       32.284  51.461  45.300  0.00  0.00    +0.020 A 
ATOM      5  C   LIG    1       30.972  51.822  45.539  0.00  0.00    +0.040 A 
ATOM      6  C   LIG    1       29.946  50.947  45.233  0.00  0.00    +0.030 A 
ATOM      7  C   LIG    1       30.235  49.709  44.685  0.00  0.00    -0.030 A 
ATOM      8 CL   LIG    1       28.949  48.609  44.299  0.00  0.00    -0.060 Cl
ATOM      9  C   LIG    1       31.549  49.351  44.439  0.00  0.00    +0.040 A 
ENDBRANCH   2   3
BRANCH   2  10
ATOM     10  N   LIG    1       34.729  49.754  45.760  0.00  0.00    -0.740 N 
ATOM     11  H   LIG    1       35.418  50.404  45.967  0.00  0.00    +0.400 HD
BRANCH  10  12
ATOM     12  C   LIG    1       34.426  48.742  46.677  0.00  0.00    +0.210 A 
ATOM     13  C   LIG    1       34.005  49.070  47.959  0.00  0.00    -0.040 A 
ATOM     14  C   LIG    1       33.705  48.069  48.863  0.00  0.00    +0.030 A 
ATOM     15  C   LIG    1       33.826  46.741  48.492  0.00  0.00    +0.040 A 
ATOM     16  C   LIG    1       34.245  46.413  47.214  0.00  0.00    +0.030 A 
ATOM     17  F   LIG    1       33.533  45.763  49.378  0.00  0.00    -0.150 F 
ATOM     18  C   LIG    1       34.540  47.410  46.305  0.00  0.00    -0.040 A 
ENDBRANCH  10  12
ENDBRANCH   2  10
TORSDOF 3
ENDMDL
MODEL 9
REMARK VINA RESULT:     0.000     21.770     23.318
REMARK INTER + INTRA:          -0.820
REMARK INTER:                   0.000
REMARK INTRA:                  -0.820
REMARK UNBOUND:                -0.820
REMARK  Name = ZINC000021057951
REMARK                            x       y       z     vdW  Elec       q    Type
REMARK                         _______ _______ _______ _____ _____    ______ ____
ROOT
ATOM      1  C   LIG    1       55.929  28.767  38.798  0.00  0.00    +0.030 C 
ATOM      2  C   LIG    1       56.080  29.829  39.889  0.00  0.00    +0.280 C 
ENDROOT
BRANCH   2   3
ATOM      3  C   LIG    1       54.870  29.803  40.787  0.00  0.00    -0.080 A 
ATOM      4  C   LIG    1       53.607  29.960  40.249  0.00  0.00    +0.020 A 
ATOM      5  C   LIG    1       52.497  29.935  41.072  0.00  0.00    +0.040 A 
ATOM      6  C   LIG    1       52.649  29.755  42.435  0.00  0.00    +0.030 A 
ATOM      7  C   LIG    1       53.914  29.599  42.974  0.00  0.00    -0.030 A 
ATOM      8 CL   LIG    1       54.106  29.372  44.684  0.00  0.00    -0.060 Cl
ATOM      9  C   LIG    1       55.024  29.617  42.148  0.00  0.00    +0.040 A 
ENDBRANCH   2   3
BRANCH   2  10
ATOM     10  N   LIG    1       56.200  31.151  39.270  0.00  0.00    -0.740 N 
ATOM     11  H   LIG    1       56.050  31.256  38.318  0.00  0.00    +0.400 HD
BRANCH  10  12
ATOM     12  C   LIG    1       56.528  32.263  40.052  0.00  0.00    +0.210 A 
ATOM     13  C   LIG    1       55.666  33.350  40.111  0.00  0.00    -0.040 A 
ATOM     14  C   LIG    1       55.991  34.447  40.884  0.00  0.00    +0.030 A 
ATOM     15  C   LIG    1       57.176  34.464  41.600  0.00  0.00    +0.040 A 
ATOM     16  C   LIG    1       58.037  33.380  41.543  0.00  0.00    +0.030 A 
ATOM     17  F   LIG    1       57.493  35.538  42.356  0.00  0.00    -0.150 F 
ATOM     18  C   LIG    1       57.713  32.279  40.776  0.00  0.00    -0.040 A 
ENDBRANCH  10  12
ENDBRANCH   2  10
TORSDOF 3
ENDMDL
